*SPEF "ieee 1481-1999"
*DESIGN "user_proj_example"
*DATE "11:11:11 Fri 11 11, 1111"
*VENDOR "OpenRCX"
*PROGRAM "Parallel Extraction"
*VERSION "1.0"
*DESIGN_FLOW "NAME_SCOPE LOCAL" "PIN_CAP NONE"
*DIVIDER /
*DELIMITER :
*BUS_DELIMITER []
*T_UNIT 1 NS
*C_UNIT 1 PF
*R_UNIT 1 OHM
*L_UNIT 1 HENRY

*NAME_MAP
*1 io_in[0]
*2 io_in[10]
*3 io_in[11]
*4 io_in[12]
*5 io_in[13]
*6 io_in[14]
*7 io_in[15]
*8 io_in[16]
*9 io_in[17]
*10 io_in[18]
*11 io_in[19]
*12 io_in[1]
*13 io_in[20]
*14 io_in[21]
*15 io_in[22]
*16 io_in[23]
*17 io_in[24]
*18 io_in[25]
*19 io_in[26]
*20 io_in[27]
*21 io_in[28]
*22 io_in[29]
*23 io_in[2]
*24 io_in[30]
*25 io_in[31]
*26 io_in[32]
*27 io_in[33]
*28 io_in[34]
*29 io_in[35]
*30 io_in[36]
*31 io_in[37]
*32 io_in[3]
*33 io_in[4]
*34 io_in[5]
*35 io_in[6]
*36 io_in[7]
*37 io_in[8]
*38 io_in[9]
*39 io_oeb[0]
*40 io_oeb[10]
*41 io_oeb[11]
*42 io_oeb[12]
*43 io_oeb[13]
*44 io_oeb[14]
*45 io_oeb[15]
*46 io_oeb[16]
*47 io_oeb[17]
*48 io_oeb[18]
*49 io_oeb[19]
*50 io_oeb[1]
*51 io_oeb[20]
*52 io_oeb[21]
*53 io_oeb[22]
*54 io_oeb[23]
*55 io_oeb[24]
*56 io_oeb[25]
*57 io_oeb[26]
*58 io_oeb[27]
*59 io_oeb[28]
*60 io_oeb[29]
*61 io_oeb[2]
*62 io_oeb[30]
*63 io_oeb[31]
*64 io_oeb[32]
*65 io_oeb[33]
*66 io_oeb[34]
*67 io_oeb[35]
*68 io_oeb[36]
*69 net169
*70 io_oeb[3]
*71 io_oeb[4]
*72 io_oeb[5]
*73 io_oeb[6]
*74 io_oeb[7]
*75 io_oeb[8]
*76 io_oeb[9]
*77 net170
*78 net180
*79 net181
*80 net182
*81 net183
*82 net184
*83 net185
*84 net186
*85 net187
*86 net188
*87 net189
*88 net171
*89 net190
*90 net191
*91 net192
*92 net193
*93 net194
*94 net195
*95 net196
*96 net197
*97 net198
*98 net199
*99 net172
*100 net200
*101 net201
*102 net202
*103 net203
*104 net204
*105 net205
*106 net206
*107 net207
*108 net173
*109 net174
*110 net175
*111 net176
*112 net177
*113 net178
*114 net179
*115 net208
*116 net209
*117 net210
*118 la_data_in[0]
*119 la_data_in[100]
*120 la_data_in[101]
*121 la_data_in[102]
*122 la_data_in[103]
*123 la_data_in[104]
*124 la_data_in[105]
*125 la_data_in[106]
*126 la_data_in[107]
*127 la_data_in[108]
*128 la_data_in[109]
*129 la_data_in[10]
*130 la_data_in[110]
*131 la_data_in[111]
*132 la_data_in[112]
*133 la_data_in[113]
*134 la_data_in[114]
*135 la_data_in[115]
*136 la_data_in[116]
*137 la_data_in[117]
*138 la_data_in[118]
*139 la_data_in[119]
*140 la_data_in[11]
*141 la_data_in[120]
*142 la_data_in[121]
*143 la_data_in[122]
*144 la_data_in[123]
*145 la_data_in[124]
*146 la_data_in[125]
*147 la_data_in[126]
*148 la_data_in[127]
*149 la_data_in[12]
*150 la_data_in[13]
*151 la_data_in[14]
*152 la_data_in[15]
*153 la_data_in[16]
*154 la_data_in[17]
*155 la_data_in[18]
*156 la_data_in[19]
*157 la_data_in[1]
*158 la_data_in[20]
*159 la_data_in[21]
*160 la_data_in[22]
*161 la_data_in[23]
*162 la_data_in[24]
*163 la_data_in[25]
*164 la_data_in[26]
*165 la_data_in[27]
*166 la_data_in[28]
*167 la_data_in[29]
*168 la_data_in[2]
*169 la_data_in[30]
*170 la_data_in[31]
*171 la_data_in[32]
*172 la_data_in[33]
*173 la_data_in[34]
*174 la_data_in[35]
*175 la_data_in[36]
*176 la_data_in[37]
*177 la_data_in[38]
*178 la_data_in[39]
*179 la_data_in[3]
*180 la_data_in[40]
*181 la_data_in[41]
*182 la_data_in[42]
*183 la_data_in[43]
*184 la_data_in[44]
*185 la_data_in[45]
*186 la_data_in[46]
*187 la_data_in[47]
*188 la_data_in[48]
*189 la_data_in[49]
*190 la_data_in[4]
*191 la_data_in[50]
*192 la_data_in[51]
*193 la_data_in[52]
*194 la_data_in[53]
*195 la_data_in[54]
*196 la_data_in[55]
*197 la_data_in[56]
*198 la_data_in[57]
*199 la_data_in[58]
*200 la_data_in[59]
*201 la_data_in[5]
*202 la_data_in[60]
*203 la_data_in[61]
*204 la_data_in[62]
*205 la_data_in[63]
*206 la_data_in[64]
*207 la_data_in[65]
*208 la_data_in[66]
*209 la_data_in[67]
*210 la_data_in[68]
*211 la_data_in[69]
*212 la_data_in[6]
*213 la_data_in[70]
*214 la_data_in[71]
*215 la_data_in[72]
*216 la_data_in[73]
*217 la_data_in[74]
*218 la_data_in[75]
*219 la_data_in[76]
*220 la_data_in[77]
*221 la_data_in[78]
*222 la_data_in[79]
*223 la_data_in[7]
*224 la_data_in[80]
*225 la_data_in[81]
*226 la_data_in[82]
*227 la_data_in[83]
*228 la_data_in[84]
*229 la_data_in[85]
*230 la_data_in[86]
*231 la_data_in[87]
*232 la_data_in[88]
*233 la_data_in[89]
*234 la_data_in[8]
*235 la_data_in[90]
*236 la_data_in[91]
*237 la_data_in[92]
*238 la_data_in[93]
*239 la_data_in[94]
*240 la_data_in[95]
*241 la_data_in[96]
*242 la_data_in[97]
*243 la_data_in[98]
*244 la_data_in[99]
*245 la_data_in[9]
*246 net41
*247 net141
*248 net142
*249 net143
*250 net144
*251 net145
*252 net146
*253 net147
*254 net148
*255 net149
*256 net150
*257 net51
*258 net151
*259 net152
*260 net153
*261 net154
*262 net155
*263 net156
*264 net157
*265 net158
*266 net159
*267 net160
*268 net52
*269 net161
*270 net162
*271 net163
*272 net164
*273 net165
*274 net166
*275 net167
*276 net168
*277 net53
*278 net54
*279 net55
*280 net56
*281 net57
*282 net58
*283 net59
*284 net60
*285 net42
*286 net61
*287 net62
*288 net63
*289 net64
*290 net65
*291 net66
*292 net67
*293 net68
*294 net69
*295 net70
*296 net43
*297 net71
*298 net72
*299 net73
*300 net74
*301 net75
*302 net76
*303 net77
*304 net78
*305 net79
*306 net80
*307 net44
*308 net81
*309 net82
*310 net83
*311 net84
*312 net85
*313 net86
*314 net87
*315 net88
*316 net89
*317 net90
*318 net45
*319 net91
*320 net92
*321 net93
*322 net94
*323 net95
*324 net96
*325 net97
*326 net98
*327 net99
*328 net100
*329 net46
*330 net101
*331 net102
*332 net103
*333 net104
*334 net105
*335 net106
*336 net107
*337 net108
*338 net109
*339 net110
*340 net47
*341 net111
*342 net112
*343 net113
*344 net114
*345 net115
*346 net116
*347 net117
*348 net118
*349 net119
*350 net120
*351 net48
*352 net121
*353 net122
*354 net123
*355 net124
*356 net125
*357 net126
*358 net127
*359 net128
*360 net129
*361 net130
*362 net49
*363 net131
*364 net132
*365 net133
*366 net134
*367 net135
*368 net136
*369 net137
*370 net138
*371 net139
*372 net140
*373 net50
*374 la_oenb[0]
*375 la_oenb[100]
*376 la_oenb[101]
*377 la_oenb[102]
*378 la_oenb[103]
*379 la_oenb[104]
*380 la_oenb[105]
*381 la_oenb[106]
*382 la_oenb[107]
*383 la_oenb[108]
*384 la_oenb[109]
*385 la_oenb[10]
*386 la_oenb[110]
*387 la_oenb[111]
*388 la_oenb[112]
*389 la_oenb[113]
*390 la_oenb[114]
*391 la_oenb[115]
*392 la_oenb[116]
*393 la_oenb[117]
*394 la_oenb[118]
*395 la_oenb[119]
*396 la_oenb[11]
*397 la_oenb[120]
*398 la_oenb[121]
*399 la_oenb[122]
*400 la_oenb[123]
*401 la_oenb[124]
*402 la_oenb[125]
*403 la_oenb[126]
*404 la_oenb[127]
*405 la_oenb[12]
*406 la_oenb[13]
*407 la_oenb[14]
*408 la_oenb[15]
*409 la_oenb[16]
*410 la_oenb[17]
*411 la_oenb[18]
*412 la_oenb[19]
*413 la_oenb[1]
*414 la_oenb[20]
*415 la_oenb[21]
*416 la_oenb[22]
*417 la_oenb[23]
*418 la_oenb[24]
*419 la_oenb[25]
*420 la_oenb[26]
*421 la_oenb[27]
*422 la_oenb[28]
*423 la_oenb[29]
*424 la_oenb[2]
*425 la_oenb[30]
*426 la_oenb[31]
*427 la_oenb[32]
*428 la_oenb[33]
*429 la_oenb[34]
*430 la_oenb[35]
*431 la_oenb[36]
*432 la_oenb[37]
*433 la_oenb[38]
*434 la_oenb[39]
*435 la_oenb[3]
*436 la_oenb[40]
*437 la_oenb[41]
*438 la_oenb[42]
*439 la_oenb[43]
*440 la_oenb[44]
*441 la_oenb[45]
*442 la_oenb[46]
*443 la_oenb[47]
*444 la_oenb[48]
*445 la_oenb[49]
*446 la_oenb[4]
*447 la_oenb[50]
*448 la_oenb[51]
*449 la_oenb[52]
*450 la_oenb[53]
*451 la_oenb[54]
*452 la_oenb[55]
*453 la_oenb[56]
*454 la_oenb[57]
*455 la_oenb[58]
*456 la_oenb[59]
*457 la_oenb[5]
*458 la_oenb[60]
*459 la_oenb[61]
*460 la_oenb[62]
*461 la_oenb[63]
*462 la_oenb[64]
*463 la_oenb[65]
*464 la_oenb[66]
*465 la_oenb[67]
*466 la_oenb[68]
*467 la_oenb[69]
*468 la_oenb[6]
*469 la_oenb[70]
*470 la_oenb[71]
*471 la_oenb[72]
*472 la_oenb[73]
*473 la_oenb[74]
*474 la_oenb[75]
*475 la_oenb[76]
*476 la_oenb[77]
*477 la_oenb[78]
*478 la_oenb[79]
*479 la_oenb[7]
*480 la_oenb[80]
*481 la_oenb[81]
*482 la_oenb[82]
*483 la_oenb[83]
*484 la_oenb[84]
*485 la_oenb[85]
*486 la_oenb[86]
*487 la_oenb[87]
*488 la_oenb[88]
*489 la_oenb[89]
*490 la_oenb[8]
*491 la_oenb[90]
*492 la_oenb[91]
*493 la_oenb[92]
*494 la_oenb[93]
*495 la_oenb[94]
*496 la_oenb[95]
*497 la_oenb[96]
*498 la_oenb[97]
*499 la_oenb[98]
*500 la_oenb[99]
*501 la_oenb[9]
*504 wb_clk_i
*505 wb_rst_i
*506 net211
*507 wbs_adr_i[0]
*508 wbs_adr_i[10]
*509 wbs_adr_i[11]
*510 wbs_adr_i[12]
*511 wbs_adr_i[13]
*512 wbs_adr_i[14]
*513 wbs_adr_i[15]
*514 wbs_adr_i[16]
*515 wbs_adr_i[17]
*516 wbs_adr_i[18]
*517 wbs_adr_i[19]
*518 wbs_adr_i[1]
*519 wbs_adr_i[20]
*520 wbs_adr_i[21]
*521 wbs_adr_i[22]
*522 wbs_adr_i[23]
*523 wbs_adr_i[24]
*524 wbs_adr_i[25]
*525 wbs_adr_i[26]
*526 wbs_adr_i[27]
*527 wbs_adr_i[28]
*528 wbs_adr_i[29]
*529 wbs_adr_i[2]
*530 wbs_adr_i[30]
*531 wbs_adr_i[31]
*532 wbs_adr_i[3]
*533 wbs_adr_i[4]
*534 wbs_adr_i[5]
*535 wbs_adr_i[6]
*536 wbs_adr_i[7]
*537 wbs_adr_i[8]
*538 wbs_adr_i[9]
*539 wbs_cyc_i
*540 wbs_dat_i[0]
*541 wbs_dat_i[10]
*542 wbs_dat_i[11]
*543 wbs_dat_i[12]
*544 wbs_dat_i[13]
*545 wbs_dat_i[14]
*546 wbs_dat_i[15]
*547 wbs_dat_i[16]
*548 wbs_dat_i[17]
*549 wbs_dat_i[18]
*550 wbs_dat_i[19]
*551 wbs_dat_i[1]
*552 wbs_dat_i[20]
*553 wbs_dat_i[21]
*554 wbs_dat_i[22]
*555 wbs_dat_i[23]
*556 wbs_dat_i[24]
*557 wbs_dat_i[25]
*558 wbs_dat_i[26]
*559 wbs_dat_i[27]
*560 wbs_dat_i[28]
*561 wbs_dat_i[29]
*562 wbs_dat_i[2]
*563 wbs_dat_i[30]
*564 wbs_dat_i[31]
*565 wbs_dat_i[3]
*566 wbs_dat_i[4]
*567 wbs_dat_i[5]
*568 wbs_dat_i[6]
*569 wbs_dat_i[7]
*570 wbs_dat_i[8]
*571 wbs_dat_i[9]
*572 net212
*573 net222
*574 net223
*575 net224
*576 net225
*577 net226
*578 net227
*579 net228
*580 net229
*581 net230
*582 net231
*583 net213
*584 net232
*585 net233
*586 net234
*587 net235
*588 net236
*589 net237
*590 net238
*591 net239
*592 net240
*593 net241
*594 net214
*595 net242
*596 net243
*597 net215
*598 net216
*599 net217
*600 net218
*601 net219
*602 net220
*603 net221
*604 wbs_sel_i[0]
*605 wbs_sel_i[1]
*606 wbs_sel_i[2]
*607 wbs_sel_i[3]
*608 wbs_stb_i
*609 wbs_we_i
*610 _000_
*611 net1
*612 net10
*613 net11
*614 net12
*615 net13
*616 net14
*617 net15
*618 net16
*619 net17
*620 net18
*621 net19
*622 net2
*623 net20
*624 net21
*625 net22
*626 net23
*627 net24
*628 net25
*629 net26
*630 net27
*631 net28
*632 net29
*633 net3
*634 net30
*635 net31
*636 net32
*637 net33
*638 net34
*639 net35
*640 net36
*641 net37
*642 net38
*643 net39
*644 net4
*645 net40
*646 net5
*647 net6
*648 net7
*649 net8
*650 net9
*651 ANTENNA__001__A1
*652 ANTENNA__206__A
*653 ANTENNA__207__A
*654 ANTENNA__208__A
*655 ANTENNA__209__A
*656 ANTENNA__210__A
*657 ANTENNA__211__A
*658 ANTENNA__212__A
*659 ANTENNA__213__A
*660 ANTENNA__214__A
*661 ANTENNA__215__A
*662 ANTENNA__216__A
*663 ANTENNA__217__A
*664 ANTENNA__218__A
*665 ANTENNA__219__A
*666 ANTENNA__220__A
*667 ANTENNA__221__A
*668 ANTENNA__222__A
*669 ANTENNA__223__A
*670 ANTENNA__224__A
*671 ANTENNA__225__A
*672 ANTENNA__226__A
*673 ANTENNA__227__A
*674 ANTENNA__228__A
*675 ANTENNA__229__A
*676 ANTENNA__230__A
*677 ANTENNA__231__A
*678 ANTENNA__232__A
*679 ANTENNA__233__A
*680 ANTENNA__234__A
*681 ANTENNA__235__A
*682 ANTENNA__236__A
*683 ANTENNA__237__A
*684 ANTENNA__238__A
*685 ANTENNA__239__A
*686 ANTENNA__240__A
*687 ANTENNA__241__A
*688 ANTENNA_input1_A
*689 ANTENNA_input2_A
*690 ANTENNA_input3_A
*691 ANTENNA_output33_A
*692 FILLER_0_100
*693 FILLER_0_1001
*694 FILLER_0_1007
*695 FILLER_0_1009
*696 FILLER_0_1013
*697 FILLER_0_1021
*698 FILLER_0_1025
*699 FILLER_0_1033
*700 FILLER_0_1040
*701 FILLER_0_1044
*702 FILLER_0_1048
*703 FILLER_0_1056
*704 FILLER_0_1060
*705 FILLER_0_1065
*706 FILLER_0_1072
*707 FILLER_0_1080
*708 FILLER_0_1084
*709 FILLER_0_1096
*710 FILLER_0_1104
*711 FILLER_0_1108
*712 FILLER_0_1124
*713 FILLER_0_1128
*714 FILLER_0_1132
*715 FILLER_0_1140
*716 FILLER_0_1144
*717 FILLER_0_1149
*718 FILLER_0_1156
*719 FILLER_0_116
*720 FILLER_0_1167
*721 FILLER_0_1175
*722 FILLER_0_1180
*723 FILLER_0_1191
*724 FILLER_0_1198
*725 FILLER_0_12
*726 FILLER_0_1208
*727 FILLER_0_1215
*728 FILLER_0_1223
*729 FILLER_0_1227
*730 FILLER_0_123
*731 FILLER_0_1231
*732 FILLER_0_1233
*733 FILLER_0_1239
*734 FILLER_0_1247
*735 FILLER_0_1251
*736 FILLER_0_1259
*737 FILLER_0_1264
*738 FILLER_0_1275
*739 FILLER_0_1287
*740 FILLER_0_1292
*741 FILLER_0_1299
*742 FILLER_0_131
*743 FILLER_0_1310
*744 FILLER_0_1317
*745 FILLER_0_1322
*746 FILLER_0_1330
*747 FILLER_0_1334
*748 FILLER_0_1342
*749 FILLER_0_1348
*750 FILLER_0_135
*751 FILLER_0_1354
*752 FILLER_0_1358
*753 FILLER_0_1370
*754 FILLER_0_1376
*755 FILLER_0_1383
*756 FILLER_0_139
*757 FILLER_0_1394
*758 FILLER_0_1401
*759 FILLER_0_1406
*760 FILLER_0_141
*761 FILLER_0_1414
*762 FILLER_0_1418
*763 FILLER_0_1426
*764 FILLER_0_1432
*765 FILLER_0_1441
*766 FILLER_0_1453
*767 FILLER_0_1460
*768 FILLER_0_1467
*769 FILLER_0_147
*770 FILLER_0_1473
*771 FILLER_0_1477
*772 FILLER_0_1483
*773 FILLER_0_1485
*774 FILLER_0_1489
*775 FILLER_0_1497
*776 FILLER_0_1501
*777 FILLER_0_1509
*778 FILLER_0_1516
*779 FILLER_0_1525
*780 FILLER_0_1537
*781 FILLER_0_1544
*782 FILLER_0_155
*783 FILLER_0_1551
*784 FILLER_0_1560
*785 FILLER_0_1572
*786 FILLER_0_1580
*787 FILLER_0_1584
*788 FILLER_0_159
*789 FILLER_0_1600
*790 FILLER_0_1604
*791 FILLER_0_1608
*792 FILLER_0_1616
*793 FILLER_0_1620
*794 FILLER_0_1625
*795 FILLER_0_1632
*796 FILLER_0_1640
*797 FILLER_0_1644
*798 FILLER_0_1656
*799 FILLER_0_1664
*800 FILLER_0_1668
*801 FILLER_0_167
*802 FILLER_0_1684
*803 FILLER_0_1691
*804 FILLER_0_1699
*805 FILLER_0_1703
*806 FILLER_0_1707
*807 FILLER_0_1709
*808 FILLER_0_1715
*809 FILLER_0_172
*810 FILLER_0_1723
*811 FILLER_0_1727
*812 FILLER_0_1735
*813 FILLER_0_1740
*814 FILLER_0_1751
*815 FILLER_0_1763
*816 FILLER_0_1768
*817 FILLER_0_1775
*818 FILLER_0_1783
*819 FILLER_0_1787
*820 FILLER_0_1791
*821 FILLER_0_1793
*822 FILLER_0_1799
*823 FILLER_0_1807
*824 FILLER_0_1811
*825 FILLER_0_1819
*826 FILLER_0_1824
*827 FILLER_0_183
*828 FILLER_0_1830
*829 FILLER_0_1834
*830 FILLER_0_1846
*831 FILLER_0_1852
*832 FILLER_0_1859
*833 FILLER_0_1870
*834 FILLER_0_1877
*835 FILLER_0_1882
*836 FILLER_0_1890
*837 FILLER_0_1894
*838 FILLER_0_1902
*839 FILLER_0_1908
*840 FILLER_0_1914
*841 FILLER_0_1918
*842 FILLER_0_1925
*843 FILLER_0_195
*844 FILLER_0_20
*845 FILLER_0_200
*846 FILLER_0_207
*847 FILLER_0_215
*848 FILLER_0_219
*849 FILLER_0_223
*850 FILLER_0_225
*851 FILLER_0_231
*852 FILLER_0_239
*853 FILLER_0_24
*854 FILLER_0_243
*855 FILLER_0_251
*856 FILLER_0_256
*857 FILLER_0_262
*858 FILLER_0_266
*859 FILLER_0_278
*860 FILLER_0_284
*861 FILLER_0_29
*862 FILLER_0_291
*863 FILLER_0_302
*864 FILLER_0_309
*865 FILLER_0_314
*866 FILLER_0_322
*867 FILLER_0_326
*868 FILLER_0_334
*869 FILLER_0_340
*870 FILLER_0_346
*871 FILLER_0_350
*872 FILLER_0_362
*873 FILLER_0_368
*874 FILLER_0_375
*875 FILLER_0_381
*876 FILLER_0_385
*877 FILLER_0_391
*878 FILLER_0_393
*879 FILLER_0_397
*880 FILLER_0_40
*881 FILLER_0_405
*882 FILLER_0_409
*883 FILLER_0_416
*884 FILLER_0_421
*885 FILLER_0_425
*886 FILLER_0_429
*887 FILLER_0_437
*888 FILLER_0_441
*889 FILLER_0_447
*890 FILLER_0_449
*891 FILLER_0_453
*892 FILLER_0_461
*893 FILLER_0_465
*894 FILLER_0_473
*895 FILLER_0_480
*896 FILLER_0_489
*897 FILLER_0_501
*898 FILLER_0_508
*899 FILLER_0_515
*900 FILLER_0_52
*901 FILLER_0_524
*902 FILLER_0_536
*903 FILLER_0_544
*904 FILLER_0_548
*905 FILLER_0_564
*906 FILLER_0_568
*907 FILLER_0_572
*908 FILLER_0_580
*909 FILLER_0_584
*910 FILLER_0_589
*911 FILLER_0_596
*912 FILLER_0_60
*913 FILLER_0_604
*914 FILLER_0_608
*915 FILLER_0_620
*916 FILLER_0_628
*917 FILLER_0_632
*918 FILLER_0_648
*919 FILLER_0_655
*920 FILLER_0_663
*921 FILLER_0_667
*922 FILLER_0_671
*923 FILLER_0_673
*924 FILLER_0_679
*925 FILLER_0_68
*926 FILLER_0_687
*927 FILLER_0_691
*928 FILLER_0_699
*929 FILLER_0_704
*930 FILLER_0_715
*931 FILLER_0_72
*932 FILLER_0_727
*933 FILLER_0_732
*934 FILLER_0_739
*935 FILLER_0_747
*936 FILLER_0_751
*937 FILLER_0_755
*938 FILLER_0_757
*939 FILLER_0_763
*940 FILLER_0_771
*941 FILLER_0_775
*942 FILLER_0_783
*943 FILLER_0_788
*944 FILLER_0_794
*945 FILLER_0_798
*946 FILLER_0_810
*947 FILLER_0_816
*948 FILLER_0_823
*949 FILLER_0_834
*950 FILLER_0_841
*951 FILLER_0_846
*952 FILLER_0_854
*953 FILLER_0_858
*954 FILLER_0_866
*955 FILLER_0_872
*956 FILLER_0_878
*957 FILLER_0_88
*958 FILLER_0_882
*959 FILLER_0_894
*960 FILLER_0_900
*961 FILLER_0_907
*962 FILLER_0_913
*963 FILLER_0_917
*964 FILLER_0_923
*965 FILLER_0_925
*966 FILLER_0_929
*967 FILLER_0_937
*968 FILLER_0_941
*969 FILLER_0_949
*970 FILLER_0_956
*971 FILLER_0_96
*972 FILLER_0_965
*973 FILLER_0_977
*974 FILLER_0_984
*975 FILLER_0_991
*976 FILLER_0_997
*977 FILLER_100_1005
*978 FILLER_100_1017
*979 FILLER_100_1029
*980 FILLER_100_1035
*981 FILLER_100_1037
*982 FILLER_100_1049
*983 FILLER_100_1061
*984 FILLER_100_1073
*985 FILLER_100_1085
*986 FILLER_100_109
*987 FILLER_100_1091
*988 FILLER_100_1093
*989 FILLER_100_1105
*990 FILLER_100_1117
*991 FILLER_100_1129
*992 FILLER_100_1141
*993 FILLER_100_1147
*994 FILLER_100_1149
*995 FILLER_100_1161
*996 FILLER_100_1173
*997 FILLER_100_1185
*998 FILLER_100_1197
*999 FILLER_100_1203
*1000 FILLER_100_1205
*1001 FILLER_100_121
*1002 FILLER_100_1217
*1003 FILLER_100_1229
*1004 FILLER_100_1241
*1005 FILLER_100_1253
*1006 FILLER_100_1259
*1007 FILLER_100_1261
*1008 FILLER_100_1273
*1009 FILLER_100_1285
*1010 FILLER_100_1297
*1011 FILLER_100_1309
*1012 FILLER_100_1315
*1013 FILLER_100_1317
*1014 FILLER_100_1329
*1015 FILLER_100_133
*1016 FILLER_100_1341
*1017 FILLER_100_1353
*1018 FILLER_100_1365
*1019 FILLER_100_1371
*1020 FILLER_100_1373
*1021 FILLER_100_1385
*1022 FILLER_100_139
*1023 FILLER_100_1397
*1024 FILLER_100_1409
*1025 FILLER_100_141
*1026 FILLER_100_1421
*1027 FILLER_100_1427
*1028 FILLER_100_1429
*1029 FILLER_100_1441
*1030 FILLER_100_1453
*1031 FILLER_100_1465
*1032 FILLER_100_1477
*1033 FILLER_100_1483
*1034 FILLER_100_1485
*1035 FILLER_100_1497
*1036 FILLER_100_15
*1037 FILLER_100_1509
*1038 FILLER_100_1521
*1039 FILLER_100_153
*1040 FILLER_100_1533
*1041 FILLER_100_1539
*1042 FILLER_100_1541
*1043 FILLER_100_1553
*1044 FILLER_100_1565
*1045 FILLER_100_1577
*1046 FILLER_100_1589
*1047 FILLER_100_1595
*1048 FILLER_100_1597
*1049 FILLER_100_1609
*1050 FILLER_100_1621
*1051 FILLER_100_1633
*1052 FILLER_100_1645
*1053 FILLER_100_165
*1054 FILLER_100_1651
*1055 FILLER_100_1653
*1056 FILLER_100_1665
*1057 FILLER_100_1677
*1058 FILLER_100_1689
*1059 FILLER_100_1701
*1060 FILLER_100_1707
*1061 FILLER_100_1709
*1062 FILLER_100_1721
*1063 FILLER_100_1733
*1064 FILLER_100_1745
*1065 FILLER_100_1757
*1066 FILLER_100_1763
*1067 FILLER_100_1765
*1068 FILLER_100_177
*1069 FILLER_100_1777
*1070 FILLER_100_1789
*1071 FILLER_100_1801
*1072 FILLER_100_1813
*1073 FILLER_100_1819
*1074 FILLER_100_1821
*1075 FILLER_100_1833
*1076 FILLER_100_1845
*1077 FILLER_100_1857
*1078 FILLER_100_1869
*1079 FILLER_100_1875
*1080 FILLER_100_1877
*1081 FILLER_100_1889
*1082 FILLER_100_189
*1083 FILLER_100_1901
*1084 FILLER_100_1913
*1085 FILLER_100_1925
*1086 FILLER_100_195
*1087 FILLER_100_197
*1088 FILLER_100_209
*1089 FILLER_100_221
*1090 FILLER_100_233
*1091 FILLER_100_245
*1092 FILLER_100_251
*1093 FILLER_100_253
*1094 FILLER_100_265
*1095 FILLER_100_27
*1096 FILLER_100_277
*1097 FILLER_100_289
*1098 FILLER_100_29
*1099 FILLER_100_3
*1100 FILLER_100_301
*1101 FILLER_100_307
*1102 FILLER_100_309
*1103 FILLER_100_321
*1104 FILLER_100_333
*1105 FILLER_100_345
*1106 FILLER_100_357
*1107 FILLER_100_363
*1108 FILLER_100_365
*1109 FILLER_100_377
*1110 FILLER_100_389
*1111 FILLER_100_401
*1112 FILLER_100_41
*1113 FILLER_100_413
*1114 FILLER_100_419
*1115 FILLER_100_421
*1116 FILLER_100_433
*1117 FILLER_100_445
*1118 FILLER_100_457
*1119 FILLER_100_469
*1120 FILLER_100_475
*1121 FILLER_100_477
*1122 FILLER_100_489
*1123 FILLER_100_501
*1124 FILLER_100_513
*1125 FILLER_100_525
*1126 FILLER_100_53
*1127 FILLER_100_531
*1128 FILLER_100_533
*1129 FILLER_100_545
*1130 FILLER_100_557
*1131 FILLER_100_569
*1132 FILLER_100_581
*1133 FILLER_100_587
*1134 FILLER_100_589
*1135 FILLER_100_601
*1136 FILLER_100_613
*1137 FILLER_100_625
*1138 FILLER_100_637
*1139 FILLER_100_643
*1140 FILLER_100_645
*1141 FILLER_100_65
*1142 FILLER_100_657
*1143 FILLER_100_669
*1144 FILLER_100_681
*1145 FILLER_100_693
*1146 FILLER_100_699
*1147 FILLER_100_701
*1148 FILLER_100_713
*1149 FILLER_100_725
*1150 FILLER_100_737
*1151 FILLER_100_749
*1152 FILLER_100_755
*1153 FILLER_100_757
*1154 FILLER_100_769
*1155 FILLER_100_77
*1156 FILLER_100_781
*1157 FILLER_100_793
*1158 FILLER_100_805
*1159 FILLER_100_811
*1160 FILLER_100_813
*1161 FILLER_100_825
*1162 FILLER_100_83
*1163 FILLER_100_837
*1164 FILLER_100_849
*1165 FILLER_100_85
*1166 FILLER_100_861
*1167 FILLER_100_867
*1168 FILLER_100_869
*1169 FILLER_100_881
*1170 FILLER_100_893
*1171 FILLER_100_905
*1172 FILLER_100_917
*1173 FILLER_100_923
*1174 FILLER_100_925
*1175 FILLER_100_937
*1176 FILLER_100_949
*1177 FILLER_100_961
*1178 FILLER_100_97
*1179 FILLER_100_973
*1180 FILLER_100_979
*1181 FILLER_100_981
*1182 FILLER_100_993
*1183 FILLER_101_1001
*1184 FILLER_101_1007
*1185 FILLER_101_1009
*1186 FILLER_101_1021
*1187 FILLER_101_1033
*1188 FILLER_101_1045
*1189 FILLER_101_105
*1190 FILLER_101_1057
*1191 FILLER_101_1063
*1192 FILLER_101_1065
*1193 FILLER_101_1077
*1194 FILLER_101_1089
*1195 FILLER_101_1101
*1196 FILLER_101_111
*1197 FILLER_101_1113
*1198 FILLER_101_1119
*1199 FILLER_101_1121
*1200 FILLER_101_113
*1201 FILLER_101_1133
*1202 FILLER_101_1145
*1203 FILLER_101_1157
*1204 FILLER_101_1169
*1205 FILLER_101_1175
*1206 FILLER_101_1177
*1207 FILLER_101_1189
*1208 FILLER_101_1201
*1209 FILLER_101_1213
*1210 FILLER_101_1225
*1211 FILLER_101_1231
*1212 FILLER_101_1233
*1213 FILLER_101_1245
*1214 FILLER_101_125
*1215 FILLER_101_1257
*1216 FILLER_101_1269
*1217 FILLER_101_1281
*1218 FILLER_101_1287
*1219 FILLER_101_1289
*1220 FILLER_101_1301
*1221 FILLER_101_1313
*1222 FILLER_101_1325
*1223 FILLER_101_1337
*1224 FILLER_101_1343
*1225 FILLER_101_1345
*1226 FILLER_101_1357
*1227 FILLER_101_1369
*1228 FILLER_101_137
*1229 FILLER_101_1381
*1230 FILLER_101_1393
*1231 FILLER_101_1399
*1232 FILLER_101_1401
*1233 FILLER_101_1413
*1234 FILLER_101_1425
*1235 FILLER_101_1437
*1236 FILLER_101_1449
*1237 FILLER_101_1455
*1238 FILLER_101_1457
*1239 FILLER_101_1469
*1240 FILLER_101_1481
*1241 FILLER_101_149
*1242 FILLER_101_1493
*1243 FILLER_101_15
*1244 FILLER_101_1505
*1245 FILLER_101_1511
*1246 FILLER_101_1513
*1247 FILLER_101_1525
*1248 FILLER_101_1537
*1249 FILLER_101_1549
*1250 FILLER_101_1561
*1251 FILLER_101_1567
*1252 FILLER_101_1569
*1253 FILLER_101_1581
*1254 FILLER_101_1593
*1255 FILLER_101_1605
*1256 FILLER_101_161
*1257 FILLER_101_1617
*1258 FILLER_101_1623
*1259 FILLER_101_1625
*1260 FILLER_101_1637
*1261 FILLER_101_1649
*1262 FILLER_101_1661
*1263 FILLER_101_167
*1264 FILLER_101_1673
*1265 FILLER_101_1679
*1266 FILLER_101_1681
*1267 FILLER_101_169
*1268 FILLER_101_1693
*1269 FILLER_101_1705
*1270 FILLER_101_1717
*1271 FILLER_101_1729
*1272 FILLER_101_1735
*1273 FILLER_101_1737
*1274 FILLER_101_1749
*1275 FILLER_101_1761
*1276 FILLER_101_1773
*1277 FILLER_101_1785
*1278 FILLER_101_1791
*1279 FILLER_101_1793
*1280 FILLER_101_1805
*1281 FILLER_101_181
*1282 FILLER_101_1817
*1283 FILLER_101_1829
*1284 FILLER_101_1841
*1285 FILLER_101_1847
*1286 FILLER_101_1849
*1287 FILLER_101_1861
*1288 FILLER_101_1873
*1289 FILLER_101_1885
*1290 FILLER_101_1897
*1291 FILLER_101_1903
*1292 FILLER_101_1905
*1293 FILLER_101_1917
*1294 FILLER_101_193
*1295 FILLER_101_205
*1296 FILLER_101_217
*1297 FILLER_101_223
*1298 FILLER_101_225
*1299 FILLER_101_237
*1300 FILLER_101_249
*1301 FILLER_101_261
*1302 FILLER_101_27
*1303 FILLER_101_273
*1304 FILLER_101_279
*1305 FILLER_101_281
*1306 FILLER_101_293
*1307 FILLER_101_3
*1308 FILLER_101_305
*1309 FILLER_101_317
*1310 FILLER_101_329
*1311 FILLER_101_335
*1312 FILLER_101_337
*1313 FILLER_101_349
*1314 FILLER_101_361
*1315 FILLER_101_373
*1316 FILLER_101_385
*1317 FILLER_101_39
*1318 FILLER_101_391
*1319 FILLER_101_393
*1320 FILLER_101_405
*1321 FILLER_101_417
*1322 FILLER_101_429
*1323 FILLER_101_441
*1324 FILLER_101_447
*1325 FILLER_101_449
*1326 FILLER_101_461
*1327 FILLER_101_473
*1328 FILLER_101_485
*1329 FILLER_101_497
*1330 FILLER_101_503
*1331 FILLER_101_505
*1332 FILLER_101_51
*1333 FILLER_101_517
*1334 FILLER_101_529
*1335 FILLER_101_541
*1336 FILLER_101_55
*1337 FILLER_101_553
*1338 FILLER_101_559
*1339 FILLER_101_561
*1340 FILLER_101_57
*1341 FILLER_101_573
*1342 FILLER_101_585
*1343 FILLER_101_597
*1344 FILLER_101_609
*1345 FILLER_101_615
*1346 FILLER_101_617
*1347 FILLER_101_629
*1348 FILLER_101_641
*1349 FILLER_101_653
*1350 FILLER_101_665
*1351 FILLER_101_671
*1352 FILLER_101_673
*1353 FILLER_101_685
*1354 FILLER_101_69
*1355 FILLER_101_697
*1356 FILLER_101_709
*1357 FILLER_101_721
*1358 FILLER_101_727
*1359 FILLER_101_729
*1360 FILLER_101_741
*1361 FILLER_101_753
*1362 FILLER_101_765
*1363 FILLER_101_777
*1364 FILLER_101_783
*1365 FILLER_101_785
*1366 FILLER_101_797
*1367 FILLER_101_809
*1368 FILLER_101_81
*1369 FILLER_101_821
*1370 FILLER_101_833
*1371 FILLER_101_839
*1372 FILLER_101_841
*1373 FILLER_101_853
*1374 FILLER_101_865
*1375 FILLER_101_877
*1376 FILLER_101_889
*1377 FILLER_101_895
*1378 FILLER_101_897
*1379 FILLER_101_909
*1380 FILLER_101_921
*1381 FILLER_101_93
*1382 FILLER_101_933
*1383 FILLER_101_945
*1384 FILLER_101_951
*1385 FILLER_101_953
*1386 FILLER_101_965
*1387 FILLER_101_977
*1388 FILLER_101_989
*1389 FILLER_102_1005
*1390 FILLER_102_1017
*1391 FILLER_102_1029
*1392 FILLER_102_1035
*1393 FILLER_102_1037
*1394 FILLER_102_1049
*1395 FILLER_102_1061
*1396 FILLER_102_1073
*1397 FILLER_102_1085
*1398 FILLER_102_109
*1399 FILLER_102_1091
*1400 FILLER_102_1093
*1401 FILLER_102_1105
*1402 FILLER_102_1117
*1403 FILLER_102_1129
*1404 FILLER_102_1141
*1405 FILLER_102_1147
*1406 FILLER_102_1149
*1407 FILLER_102_1161
*1408 FILLER_102_1173
*1409 FILLER_102_1185
*1410 FILLER_102_1197
*1411 FILLER_102_1203
*1412 FILLER_102_1205
*1413 FILLER_102_121
*1414 FILLER_102_1217
*1415 FILLER_102_1229
*1416 FILLER_102_1241
*1417 FILLER_102_1253
*1418 FILLER_102_1259
*1419 FILLER_102_1261
*1420 FILLER_102_1273
*1421 FILLER_102_1285
*1422 FILLER_102_1297
*1423 FILLER_102_1309
*1424 FILLER_102_1315
*1425 FILLER_102_1317
*1426 FILLER_102_1329
*1427 FILLER_102_133
*1428 FILLER_102_1341
*1429 FILLER_102_1353
*1430 FILLER_102_1365
*1431 FILLER_102_1371
*1432 FILLER_102_1373
*1433 FILLER_102_1385
*1434 FILLER_102_139
*1435 FILLER_102_1397
*1436 FILLER_102_1409
*1437 FILLER_102_141
*1438 FILLER_102_1421
*1439 FILLER_102_1427
*1440 FILLER_102_1429
*1441 FILLER_102_1441
*1442 FILLER_102_1453
*1443 FILLER_102_1465
*1444 FILLER_102_1477
*1445 FILLER_102_1483
*1446 FILLER_102_1485
*1447 FILLER_102_1497
*1448 FILLER_102_15
*1449 FILLER_102_1509
*1450 FILLER_102_1521
*1451 FILLER_102_153
*1452 FILLER_102_1533
*1453 FILLER_102_1539
*1454 FILLER_102_1541
*1455 FILLER_102_1553
*1456 FILLER_102_1565
*1457 FILLER_102_1577
*1458 FILLER_102_1589
*1459 FILLER_102_1595
*1460 FILLER_102_1597
*1461 FILLER_102_1609
*1462 FILLER_102_1621
*1463 FILLER_102_1633
*1464 FILLER_102_1645
*1465 FILLER_102_165
*1466 FILLER_102_1651
*1467 FILLER_102_1653
*1468 FILLER_102_1665
*1469 FILLER_102_1677
*1470 FILLER_102_1689
*1471 FILLER_102_1701
*1472 FILLER_102_1707
*1473 FILLER_102_1709
*1474 FILLER_102_1721
*1475 FILLER_102_1733
*1476 FILLER_102_1745
*1477 FILLER_102_1757
*1478 FILLER_102_1763
*1479 FILLER_102_1765
*1480 FILLER_102_177
*1481 FILLER_102_1777
*1482 FILLER_102_1789
*1483 FILLER_102_1801
*1484 FILLER_102_1813
*1485 FILLER_102_1819
*1486 FILLER_102_1821
*1487 FILLER_102_1833
*1488 FILLER_102_1845
*1489 FILLER_102_1857
*1490 FILLER_102_1869
*1491 FILLER_102_1875
*1492 FILLER_102_1877
*1493 FILLER_102_1889
*1494 FILLER_102_189
*1495 FILLER_102_1901
*1496 FILLER_102_1913
*1497 FILLER_102_1925
*1498 FILLER_102_195
*1499 FILLER_102_197
*1500 FILLER_102_209
*1501 FILLER_102_221
*1502 FILLER_102_233
*1503 FILLER_102_245
*1504 FILLER_102_251
*1505 FILLER_102_253
*1506 FILLER_102_265
*1507 FILLER_102_27
*1508 FILLER_102_277
*1509 FILLER_102_289
*1510 FILLER_102_29
*1511 FILLER_102_3
*1512 FILLER_102_301
*1513 FILLER_102_307
*1514 FILLER_102_309
*1515 FILLER_102_321
*1516 FILLER_102_333
*1517 FILLER_102_345
*1518 FILLER_102_357
*1519 FILLER_102_363
*1520 FILLER_102_365
*1521 FILLER_102_377
*1522 FILLER_102_389
*1523 FILLER_102_401
*1524 FILLER_102_41
*1525 FILLER_102_413
*1526 FILLER_102_419
*1527 FILLER_102_421
*1528 FILLER_102_433
*1529 FILLER_102_445
*1530 FILLER_102_457
*1531 FILLER_102_469
*1532 FILLER_102_475
*1533 FILLER_102_477
*1534 FILLER_102_489
*1535 FILLER_102_501
*1536 FILLER_102_513
*1537 FILLER_102_525
*1538 FILLER_102_53
*1539 FILLER_102_531
*1540 FILLER_102_533
*1541 FILLER_102_545
*1542 FILLER_102_557
*1543 FILLER_102_569
*1544 FILLER_102_581
*1545 FILLER_102_587
*1546 FILLER_102_589
*1547 FILLER_102_601
*1548 FILLER_102_613
*1549 FILLER_102_625
*1550 FILLER_102_637
*1551 FILLER_102_643
*1552 FILLER_102_645
*1553 FILLER_102_65
*1554 FILLER_102_657
*1555 FILLER_102_669
*1556 FILLER_102_681
*1557 FILLER_102_693
*1558 FILLER_102_699
*1559 FILLER_102_701
*1560 FILLER_102_713
*1561 FILLER_102_725
*1562 FILLER_102_737
*1563 FILLER_102_749
*1564 FILLER_102_755
*1565 FILLER_102_757
*1566 FILLER_102_769
*1567 FILLER_102_77
*1568 FILLER_102_781
*1569 FILLER_102_793
*1570 FILLER_102_805
*1571 FILLER_102_811
*1572 FILLER_102_813
*1573 FILLER_102_825
*1574 FILLER_102_83
*1575 FILLER_102_837
*1576 FILLER_102_849
*1577 FILLER_102_85
*1578 FILLER_102_861
*1579 FILLER_102_867
*1580 FILLER_102_869
*1581 FILLER_102_881
*1582 FILLER_102_893
*1583 FILLER_102_905
*1584 FILLER_102_917
*1585 FILLER_102_923
*1586 FILLER_102_925
*1587 FILLER_102_937
*1588 FILLER_102_949
*1589 FILLER_102_961
*1590 FILLER_102_97
*1591 FILLER_102_973
*1592 FILLER_102_979
*1593 FILLER_102_981
*1594 FILLER_102_993
*1595 FILLER_103_1001
*1596 FILLER_103_1007
*1597 FILLER_103_1009
*1598 FILLER_103_1021
*1599 FILLER_103_1033
*1600 FILLER_103_1045
*1601 FILLER_103_105
*1602 FILLER_103_1057
*1603 FILLER_103_1063
*1604 FILLER_103_1065
*1605 FILLER_103_1077
*1606 FILLER_103_1089
*1607 FILLER_103_1101
*1608 FILLER_103_111
*1609 FILLER_103_1113
*1610 FILLER_103_1119
*1611 FILLER_103_1121